<?xml version="1.0" encoding="UTF-8"?>

<!-- generated on 07/26/16 20:17:51 by SUMO netconvert Version 0.26.0
<?xml version="1.0" encoding="UTF-8"?>

<configuration xmlns:xsi="http://www.w3.org/2001/XMLSchema-instance" xsi:noNamespaceSchemaLocation="http://sumo.dlr.de/xsd/netconvertConfiguration.xsd">

    <input>
        <type-files value="C:\Program%20Files%20(x86)\DLR\Sumo\/data/typemap/osmNetconvert.typ.xml"/>
        <osm-files value="C:\Users\protoworld\Desktop\ProtoWorld\ScriptsAndTools\Tests\TrafficGenTest/map_bbox.osm.xml"/>
    </input>

    <output>
        <output-file value="C:\Users\protoworld\Desktop\ProtoWorld\ScriptsAndTools\Tests\TrafficGenTest\map.net.xml"/>
        <output.street-names value="true"/>
        <output.original-names value="true"/>
    </output>

    <projection>
        <proj.utm value="true"/>
    </projection>

    <tls_building>
        <tls.discard-simple value="true"/>
        <tls.join value="true"/>
        <tls.guess-signals value="true"/>
    </tls_building>

    <ramp_guessing>
        <ramps.guess value="true"/>
    </ramp_guessing>

    <edge_removal>
        <remove-edges.by-vclass value="tram,rail_urban,rail_electric,bicycle,pedestrian"/>
    </edge_removal>

    <processing>
        <geometry.remove value="true"/>
        <roundabouts.guess value="true"/>
        <junctions.join value="true"/>
        <junctions.corner-detail value="5"/>
    </processing>

    <report>
        <verbose value="true"/>
    </report>

</configuration>
-->

<net version="0.25" junctionCornerDetail="5" xmlns:xsi="http://www.w3.org/2001/XMLSchema-instance" xsi:noNamespaceSchemaLocation="http://sumo.dlr.de/xsd/net_file.xsd">

    <location netOffset="-333010.65,-6582062.33" convBoundary="0.00,0.00,859.73,1001.13" origBoundary="18.036403,59.335781,18.082579,59.383705" projParameter="+proj=utm +zone=34 +ellps=WGS84 +datum=WGS84 +units=m +no_defs"/>

    <type id="highway.bridleway" priority="1" numLanes="1" speed="2.78" allow="pedestrian" oneway="1" width="2.00"/>
    <type id="highway.bus_guideway" priority="1" numLanes="1" speed="8.33" allow="bus" oneway="1"/>
    <type id="highway.cycleway" priority="1" numLanes="1" speed="5.56" allow="bicycle" oneway="0" width="1.00"/>
    <type id="highway.footway" priority="1" numLanes="1" speed="8.33" allow="pedestrian" oneway="1" width="2.00"/>
    <type id="highway.ford" priority="1" numLanes="1" speed="2.78" allow="army" oneway="0"/>
    <type id="highway.living_street" priority="3" numLanes="1" speed="2.78" disallow="tram rail_urban rail rail_electric ship" oneway="0"/>
    <type id="highway.motorway" priority="13" numLanes="2" speed="44.44" allow="private emergency authority army vip passenger hov taxi bus coach delivery truck trailer motorcycle evehicle custom1 custom2" oneway="1"/>
    <type id="highway.motorway_link" priority="12" numLanes="1" speed="22.22" allow="private emergency authority army vip passenger hov taxi bus coach delivery truck trailer motorcycle evehicle custom1 custom2" oneway="1"/>
    <type id="highway.path" priority="1" numLanes="1" speed="2.78" allow="bicycle pedestrian" oneway="1" width="2.00"/>
    <type id="highway.pedestrian" priority="1" numLanes="1" speed="8.33" allow="pedestrian" oneway="1" width="2.00"/>
    <type id="highway.primary" priority="9" numLanes="2" speed="27.78" disallow="tram rail_urban rail rail_electric ship" oneway="0"/>
    <type id="highway.primary_link" priority="8" numLanes="1" speed="22.22" disallow="tram rail_urban rail rail_electric ship" oneway="0"/>
    <type id="highway.raceway" priority="14" numLanes="2" speed="83.33" allow="vip" oneway="0"/>
    <type id="highway.residential" priority="4" numLanes="1" speed="13.89" disallow="tram rail_urban rail rail_electric ship" oneway="0"/>
    <type id="highway.secondary" priority="7" numLanes="2" speed="27.78" disallow="tram rail_urban rail rail_electric ship" oneway="0"/>
    <type id="highway.secondary_link" priority="6" numLanes="1" speed="22.22" disallow="tram rail_urban rail rail_electric ship" oneway="0"/>
    <type id="highway.service" priority="2" numLanes="1" speed="5.56" allow="delivery bicycle pedestrian" oneway="0"/>
    <type id="highway.services" priority="1" numLanes="1" speed="8.33" disallow="tram rail_urban rail rail_electric ship" oneway="0"/>
    <type id="highway.stairs" priority="1" numLanes="1" speed="1.39" allow="pedestrian" oneway="1" width="2.00"/>
    <type id="highway.step" priority="1" numLanes="1" speed="1.39" allow="pedestrian" oneway="1" width="2.00"/>
    <type id="highway.steps" priority="1" numLanes="1" speed="1.39" allow="pedestrian" oneway="1" width="2.00"/>
    <type id="highway.tertiary" priority="6" numLanes="1" speed="22.22" disallow="tram rail_urban rail rail_electric ship" oneway="0"/>
    <type id="highway.tertiary_link" priority="5" numLanes="1" speed="22.22" disallow="tram rail_urban rail rail_electric ship" oneway="0"/>
    <type id="highway.track" priority="1" numLanes="1" speed="5.56" disallow="tram rail_urban rail rail_electric ship" oneway="0"/>
    <type id="highway.trunk" priority="11" numLanes="2" speed="27.78" disallow="tram rail_urban rail rail_electric bicycle pedestrian ship" oneway="0"/>
    <type id="highway.trunk_link" priority="10" numLanes="1" speed="22.22" disallow="tram rail_urban rail rail_electric bicycle pedestrian ship" oneway="0"/>
    <type id="highway.unclassified" priority="5" numLanes="1" speed="13.89" disallow="tram rail_urban rail rail_electric ship" oneway="0"/>
    <type id="highway.unsurfaced" priority="1" numLanes="1" speed="8.33" disallow="tram rail_urban rail rail_electric ship" oneway="0"/>
    <type id="railway.light_rail" priority="15" numLanes="1" speed="27.78" allow="rail_urban" oneway="1"/>
    <type id="railway.preserved" priority="15" numLanes="1" speed="27.78" allow="rail" oneway="1"/>
    <type id="railway.rail" priority="15" numLanes="1" speed="83.33" allow="rail rail_electric" oneway="1"/>
    <type id="railway.subway" priority="15" numLanes="1" speed="27.78" allow="rail_urban" oneway="1"/>
    <type id="railway.tram" priority="15" numLanes="1" speed="13.89" allow="tram" oneway="1"/>

    <edge id=":101403212_0" function="internal">
        <lane id=":101403212_0_0" index="0" disallow="tram rail_urban rail rail_electric ship" speed="13.89" length="5.04" shape="477.73,153.58 476.96,152.43 476.00,151.82 474.87,151.75 473.57,152.21"/>
    </edge>
    <edge id=":101403212_1" function="internal">
        <lane id=":101403212_1_0" index="0" disallow="tram rail_urban rail rail_electric ship" speed="13.89" length="2.68" shape="477.73,153.58 477.93,152.11 478.49,151.37 478.76,151.38"/>
    </edge>
    <edge id=":101403212_5" function="internal">
        <lane id=":101403212_5_0" index="0" speed="13.89" length="2.14" shape="478.76,151.38 479.42,151.38 480.70,152.14"/>
    </edge>
    <edge id=":101403212_2" function="internal">
        <lane id=":101403212_2_0" index="0" disallow="tram rail_urban rail rail_electric ship" speed="13.89" length="5.15" shape="481.93,147.75 480.86,148.57 480.29,149.57 480.24,150.76 480.70,152.14"/>
    </edge>
    <edge id=":101403212_3" function="internal">
        <lane id=":101403212_3_0" index="0" disallow="tram rail_urban rail rail_electric ship" speed="13.89" length="9.46" shape="481.93,147.75 473.57,152.21"/>
        <lane id=":101403212_3_1" index="1" disallow="tram rail_urban rail rail_electric ship" speed="13.89" length="9.46" shape="480.36,144.85 472.04,149.28"/>
    </edge>
    <edge id=":11084395_0" function="internal">
        <lane id=":11084395_0_0" index="0" disallow="tram rail_urban rail rail_electric ship" speed="13.89" length="10.69" shape="163.94,372.12 161.54,374.27 159.80,375.73 158.28,377.30 156.54,379.76"/>
    </edge>
    <edge id=":11084395_1" function="internal">
        <lane id=":11084395_1_0" index="0" disallow="tram rail_urban rail rail_electric ship" speed="13.89" length="9.21" shape="161.66,369.73 154.37,376.09"/>
        <lane id=":11084395_1_1" index="1" disallow="tram rail_urban rail rail_electric ship" speed="13.89" length="9.21" shape="161.66,369.73 153.50,372.91"/>
    </edge>
    <edge id=":11084400_0" function="internal">
        <lane id=":11084400_0_0" index="0" disallow="tram rail_urban rail rail_electric ship" speed="13.89" length="16.14" shape="231.55,313.75 227.58,316.47 224.85,318.30 222.08,320.09 218.03,322.67"/>
        <lane id=":11084400_0_1" index="1" disallow="tram rail_urban rail rail_electric ship" speed="13.89" length="16.14" shape="229.68,311.03 225.74,313.73 223.03,315.55 220.28,317.32 216.26,319.88"/>
    </edge>
    <edge id=":11084400_2" function="internal">
        <lane id=":11084400_2_0" index="0" disallow="tram rail_urban rail rail_electric ship" speed="13.89" length="16.20" shape="229.68,311.03 225.05,313.75 221.02,315.13 217.57,315.17 214.72,313.87"/>
    </edge>
    <edge id=":11084400_3" function="internal">
        <lane id=":11084400_3_0" index="0" disallow="tram rail_urban rail rail_electric ship" speed="9.72" length="19.60" shape="227.33,304.38 226.25,308.14 224.38,312.04 221.22,315.99 216.26,319.88"/>
    </edge>
    <edge id=":11084400_4" function="internal">
        <lane id=":11084400_4_0" index="0" disallow="tram rail_urban rail rail_electric ship" speed="9.72" length="15.87" shape="227.33,304.38 225.58,309.61 223.30,312.54 220.48,313.19 217.11,311.55"/>
    </edge>
    <edge id=":11084400_5" function="internal">
        <lane id=":11084400_5_0" index="0" disallow="tram rail_urban rail rail_electric ship" speed="13.89" length="6.23" shape="223.53,305.32 225.25,310.28 225.14,311.84"/>
        <lane id=":11084400_5_1" index="1" disallow="tram rail_urban rail rail_electric ship" speed="13.89" length="6.23" shape="221.06,307.71 222.13,311.02 221.82,313.16"/>
    </edge>
    <edge id=":11084400_7" function="internal">
        <lane id=":11084400_7_0" index="0" disallow="tram rail_urban rail rail_electric ship" speed="13.89" length="4.02" shape="221.06,307.71 221.52,310.15 221.01,311.60"/>
    </edge>
    <edge id=":11084400_8" function="internal">
        <lane id=":11084400_8_0" index="0" speed="13.89" length="13.58" shape="225.14,311.84 224.91,314.82 222.51,318.95 218.03,322.67"/>
    </edge>
    <edge id=":11084400_9" function="internal">
        <lane id=":11084400_9_0" index="0" speed="13.89" length="8.99" shape="221.82,313.16 221.68,314.15 219.72,317.11 216.26,319.88"/>
    </edge>
    <edge id=":11084400_10" function="internal">
        <lane id=":11084400_10_0" index="0" speed="13.89" length="4.02" shape="221.01,311.60 219.54,312.07 217.11,311.55"/>
    </edge>
    <edge id=":1122605004_0" function="internal">
        <lane id=":1122605004_0_0" index="0" disallow="tram rail_urban rail rail_electric ship" speed="13.89" length="5.00" shape="224.04,258.92 227.86,255.73"/>
        <lane id=":1122605004_0_1" index="1" disallow="tram rail_urban rail rail_electric ship" speed="13.89" length="5.00" shape="226.04,261.54 229.91,258.32"/>
    </edge>
    <edge id=":1122605004_2" function="internal">
        <lane id=":1122605004_2_0" index="0" allow="delivery bicycle pedestrian" speed="9.72" length="5.54" shape="226.04,261.54 231.58,261.67"/>
    </edge>
    <edge id=":126335751_0" function="internal">
        <lane id=":126335751_0_0" index="0" disallow="tram rail_urban rail rail_electric ship" speed="8.33" length="9.96" shape="557.89,554.47 547.95,555.16"/>
    </edge>
    <edge id=":126335751_1" function="internal">
        <lane id=":126335751_1_0" index="0" allow="delivery bicycle pedestrian" speed="6.95" length="5.43" shape="557.89,554.47 555.10,554.37 552.97,553.34 552.80,553.12"/>
    </edge>
    <edge id=":126335751_2" function="internal">
        <lane id=":126335751_2_0" index="0" disallow="tram rail_urban rail rail_electric ship" speed="8.33" length="2.55" shape="557.89,554.47 556.56,553.79 556.06,553.02 556.10,552.89"/>
    </edge>
    <edge id=":126335751_9" function="internal">
        <lane id=":126335751_9_0" index="0" speed="6.95" length="5.16" shape="552.80,553.12 551.50,551.39 550.69,548.51"/>
    </edge>
    <edge id=":126335751_10" function="internal">
        <lane id=":126335751_10_0" index="0" speed="8.33" length="2.27" shape="556.10,552.89 556.37,552.15 557.50,551.19"/>
    </edge>
    <edge id=":126335751_3" function="internal">
        <lane id=":126335751_3_0" index="0" disallow="tram rail_urban rail rail_electric ship" speed="6.95" length="5.37" shape="553.96,548.04 554.37,549.55 555.09,550.58 556.14,551.13 557.50,551.19"/>
    </edge>
    <edge id=":126335751_4" function="internal">
        <lane id=":126335751_4_0" index="0" disallow="tram rail_urban rail rail_electric ship" speed="6.95" length="10.93" shape="553.96,548.04 553.96,551.08 552.96,553.29 550.95,554.65 547.95,555.16"/>
    </edge>
    <edge id=":126335751_5" function="internal">
        <lane id=":126335751_5_0" index="0" allow="delivery bicycle pedestrian" speed="5.56" length="4.82" shape="553.96,548.04 553.32,549.38 552.56,549.91 551.68,549.62 550.69,548.51"/>
    </edge>
    <edge id=":126335751_6" function="internal">
        <lane id=":126335751_6_0" index="0" allow="delivery bicycle pedestrian" speed="6.95" length="5.14" shape="547.86,551.86 549.28,551.62 550.22,550.98 550.69,549.94 550.69,548.51"/>
    </edge>
    <edge id=":126335751_7" function="internal">
        <lane id=":126335751_7_0" index="0" disallow="tram rail_urban rail rail_electric ship" speed="8.33" length="9.66" shape="547.86,551.86 557.50,551.19"/>
    </edge>
    <edge id=":126335751_8" function="internal">
        <lane id=":126335751_8_0" index="0" disallow="tram rail_urban rail rail_electric ship" speed="8.33" length="2.41" shape="547.86,551.86 549.12,552.66 549.56,553.47"/>
    </edge>
    <edge id=":126335751_11" function="internal">
        <lane id=":126335751_11_0" index="0" speed="8.33" length="2.41" shape="549.56,553.47 549.17,554.30 547.95,555.16"/>
    </edge>
    <edge id=":126335762_0" function="internal">
        <lane id=":126335762_0_0" index="0" disallow="tram rail_urban rail rail_electric ship" speed="8.33" length="4.82" shape="599.22,649.19 598.24,650.30 597.36,650.59 596.60,650.07 595.96,648.73"/>
    </edge>
    <edge id=":1313517796_0" function="internal">
        <lane id=":1313517796_0_0" index="0" allow="delivery bicycle pedestrian" speed="5.56" length="4.82" shape="561.41,487.15 560.09,486.47 559.58,485.70 559.90,484.84 561.03,483.87"/>
    </edge>
    <edge id=":1357103680_0" function="internal">
        <lane id=":1357103680_0_0" index="0" allow="delivery bicycle pedestrian" speed="5.56" length="4.82" shape="418.16,209.28 419.62,209.00 420.50,209.31 420.78,210.18 420.47,211.64"/>
    </edge>
    <edge id=":1397133912_0" function="internal">
        <lane id=":1397133912_0_0" index="0" allow="delivery bicycle pedestrian" speed="5.56" length="2.84" shape="648.64,115.93 648.48,113.10"/>
    </edge>
    <edge id=":1397133912_1" function="internal">
        <lane id=":1397133912_1_0" index="0" allow="delivery bicycle pedestrian" speed="5.56" length="2.41" shape="648.64,115.93 648.99,114.49 649.63,113.82"/>
    </edge>
    <edge id=":1397133912_4" function="internal">
        <lane id=":1397133912_4_0" index="0" speed="5.56" length="2.41" shape="649.63,113.82 650.54,113.93 651.74,114.81"/>
    </edge>
    <edge id=":1397133912_2" function="internal">
        <lane id=":1397133912_2_0" index="0" allow="delivery bicycle pedestrian" speed="5.56" length="0.93" shape="651.69,113.89 651.74,114.81"/>
    </edge>
    <edge id=":1397133912_3" function="internal">
        <lane id=":1397133912_3_0" index="0" allow="delivery bicycle pedestrian" speed="5.56" length="1.90" shape="651.69,113.89 650.60,114.89 650.19,114.99"/>
    </edge>
    <edge id=":1397133912_5" function="internal">
        <lane id=":1397133912_5_0" index="0" speed="5.56" length="2.91" shape="650.19,114.99 649.70,115.10 648.99,114.50 648.48,113.10"/>
    </edge>
    <edge id=":144729686_0" function="internal">
        <lane id=":144729686_0_0" index="0" disallow="tram rail_urban rail rail_electric ship" speed="11.11" length="5.27" shape="145.15,393.40 142.09,397.69"/>
    </edge>
    <edge id=":144729686_1" function="internal">
        <lane id=":144729686_1_0" index="0" disallow="tram rail_urban rail rail_electric ship" speed="13.89" length="2.87" shape="145.15,393.40 143.64,394.18 142.47,394.11"/>
    </edge>
    <edge id=":144729686_4" function="internal">
        <lane id=":144729686_4_0" index="0" speed="13.89" length="3.10" shape="142.47,394.11 141.64,393.18 141.13,391.40"/>
    </edge>
    <edge id=":144729686_2" function="internal">
        <lane id=":144729686_2_0" index="0" disallow="tram rail_urban rail rail_electric ship" speed="11.11" length="4.30" shape="139.80,395.31 140.51,394.46 140.97,393.53 141.18,392.51 141.13,391.40"/>
    </edge>
    <edge id=":144729686_3" function="internal">
        <lane id=":144729686_3_0" index="0" disallow="tram rail_urban rail rail_electric ship" speed="8.33" length="2.11" shape="139.80,395.31 141.27,395.05 141.86,395.26"/>
    </edge>
    <edge id=":144729686_5" function="internal">
        <lane id=":144729686_5_0" index="0" speed="8.33" length="2.71" shape="141.86,395.26 142.13,395.36 142.41,396.24 142.09,397.69"/>
    </edge>
    <edge id=":1511946747_0" function="internal">
        <lane id=":1511946747_0_0" index="0" allow="delivery bicycle pedestrian" speed="5.56" length="6.98" shape="263.20,274.45 257.51,278.50"/>
    </edge>
    <edge id=":1511946747_1" function="internal">
        <lane id=":1511946747_1_0" index="0" allow="delivery bicycle pedestrian" speed="5.56" length="6.42" shape="259.39,272.61 259.33,274.70 258.99,276.38 258.38,277.64 257.51,278.50"/>
    </edge>
    <edge id=":1511946760_0" function="internal">
        <lane id=":1511946760_0_0" index="0" allow="delivery bicycle pedestrian" speed="5.56" length="4.30" shape="260.98,261.45 260.17,262.20 259.60,263.08 259.27,264.07 259.18,265.17"/>
    </edge>
    <edge id=":1511946760_1" function="internal">
        <lane id=":1511946760_1_0" index="0" allow="delivery bicycle pedestrian" speed="5.56" length="4.67" shape="254.56,260.28 259.00,258.81"/>
    </edge>
    <edge id=":1511946760_2" function="internal">
        <lane id=":1511946760_2_0" index="0" allow="delivery bicycle pedestrian" speed="5.56" length="7.44" shape="254.56,260.28 256.54,260.79 257.97,261.77 258.85,263.24 259.18,265.17"/>
    </edge>
    <edge id=":1511946777_0" function="internal">
        <lane id=":1511946777_0_0" index="0" allow="delivery bicycle pedestrian" speed="5.56" length="4.82" shape="357.73,184.80 359.22,184.72 360.04,185.13 360.21,186.04 359.71,187.44"/>
    </edge>
    <edge id=":1511952551_0" function="internal">
        <lane id=":1511952551_0_0" index="0" disallow="tram rail_urban rail rail_electric ship" speed="9.72" length="5.12" shape="543.98,118.23 543.25,117.01 542.31,116.36 541.18,116.28 539.84,116.77"/>
    </edge>
    <edge id=":1511952551_1" function="internal">
        <lane id=":1511952551_1_0" index="0" allow="delivery bicycle pedestrian" speed="5.56" length="4.82" shape="543.98,118.23 544.26,116.77 544.86,116.07 545.78,116.13 547.02,116.95"/>
    </edge>
    <edge id=":1511952551_2" function="internal">
        <lane id=":1511952551_2_0" index="0" allow="delivery bicycle pedestrian" speed="9.72" length="5.42" shape="548.21,112.23 547.17,113.06 546.62,114.12 546.57,115.42 547.02,116.95"/>
    </edge>
    <edge id=":1511952551_3" function="internal">
        <lane id=":1511952551_3_0" index="0" disallow="tram rail_urban rail rail_electric ship" speed="13.89" length="9.50" shape="548.21,112.23 539.84,116.77"/>
        <lane id=":1511952551_3_1" index="1" disallow="tram rail_urban rail rail_electric ship" speed="13.89" length="9.50" shape="546.63,109.34 538.28,113.86"/>
    </edge>
    <edge id=":1518435522_0" function="internal">
        <lane id=":1518435522_0_0" index="0" disallow="tram rail_urban rail rail_electric ship" speed="13.89" length="4.82" shape="-0.64,195.25 -1.46,194.01 -1.52,193.09 -0.82,192.49 0.64,192.21"/>
    </edge>
    <edge id=":1518435571_0" function="internal">
        <lane id=":1518435571_0_0" index="0" disallow="tram rail_urban rail rail_electric ship" speed="13.89" length="0.11" shape="165.42,268.65 165.32,268.71"/>
        <lane id=":1518435571_0_1" index="1" disallow="tram rail_urban rail rail_electric ship" speed="13.89" length="0.11" shape="166.72,265.62 166.63,265.68"/>
    </edge>
    <edge id=":1518435571_2" function="internal">
        <lane id=":1518435571_2_0" index="0" disallow="tram rail_urban rail rail_electric ship" speed="13.89" length="2.29" shape="166.72,265.62 165.95,264.44 165.89,263.56"/>
    </edge>
    <edge id=":1518435571_6" function="internal">
        <lane id=":1518435571_6_0" index="0" speed="13.89" length="2.29" shape="165.89,263.56 166.56,262.99 167.95,262.74"/>
    </edge>
    <edge id=":1518435571_3" function="internal">
        <lane id=":1518435571_3_0" index="0" disallow="tram rail_urban rail rail_electric ship" speed="13.89" length="0.10" shape="169.27,259.63 169.25,259.70"/>
        <lane id=":1518435571_3_1" index="1" disallow="tram rail_urban rail rail_electric ship" speed="13.89" length="0.10" shape="167.95,262.66 167.95,262.74"/>
    </edge>
    <edge id=":1518435571_5" function="internal">
        <lane id=":1518435571_5_0" index="0" disallow="tram rail_urban rail rail_electric ship" speed="13.89" length="2.41" shape="167.95,262.66 168.76,263.91 168.80,264.83"/>
    </edge>
    <edge id=":1518435571_7" function="internal">
        <lane id=":1518435571_7_0" index="0" speed="13.89" length="2.41" shape="168.80,264.83 168.10,265.42 166.63,265.68"/>
    </edge>
    <edge id=":1748882234_0" function="internal">
        <lane id=":1748882234_0_0" index="0" disallow="tram rail_urban rail rail_electric ship" speed="13.89" length="8.96" shape="484.85,178.30 483.58,169.44"/>
    </edge>
    <edge id=":1748882234_1" function="internal">
        <lane id=":1748882234_1_0" index="0" allow="delivery bicycle pedestrian" speed="9.72" length="4.91" shape="484.85,178.30 485.03,175.22 485.89,173.61"/>
    </edge>
    <edge id=":1748882234_2" function="internal">
        <lane id=":1748882234_2_0" index="0" disallow="tram rail_urban rail rail_electric ship" speed="13.89" length="2.41" shape="484.85,178.30 485.56,177.00 486.35,176.52"/>
    </edge>
    <edge id=":1748882234_9" function="internal">
        <lane id=":1748882234_9_0" index="0" speed="9.72" length="6.15" shape="485.89,173.61 486.18,173.07 488.29,171.86 491.37,171.58"/>
    </edge>
    <edge id=":1748882234_10" function="internal">
        <lane id=":1748882234_10_0" index="0" speed="13.89" length="2.41" shape="486.35,176.52 487.21,176.86 488.14,178.02"/>
    </edge>
    <edge id=":1748882234_3" function="internal">
        <lane id=":1748882234_3_0" index="0" disallow="tram rail_urban rail rail_electric ship" speed="9.72" length="5.18" shape="491.19,174.88 489.75,175.01 488.76,175.57 488.22,176.58 488.14,178.02"/>
    </edge>
    <edge id=":1748882234_4" function="internal">
        <lane id=":1748882234_4_0" index="0" disallow="tram rail_urban rail rail_electric ship" speed="9.72" length="10.13" shape="491.19,174.88 488.28,174.41 486.05,173.34 484.48,171.68 483.58,169.44"/>
    </edge>
    <edge id=":1748882234_5" function="internal">
        <lane id=":1748882234_5_0" index="0" allow="delivery bicycle pedestrian" speed="5.56" length="4.82" shape="491.19,174.88 490.00,173.99 489.63,173.14 490.09,172.34 491.37,171.58"/>
    </edge>
    <edge id=":1748882234_6" function="internal">
        <lane id=":1748882234_6_0" index="0" allow="delivery bicycle pedestrian" speed="9.72" length="5.82" shape="486.80,168.72 487.30,169.89 488.24,170.76 489.59,171.32 491.37,171.58"/>
    </edge>
    <edge id=":1748882234_7" function="internal">
        <lane id=":1748882234_7_0" index="0" disallow="tram rail_urban rail rail_electric ship" speed="13.89" length="9.40" shape="486.80,168.72 488.14,178.02"/>
    </edge>
    <edge id=":1748882234_8" function="internal">
        <lane id=":1748882234_8_0" index="0" disallow="tram rail_urban rail rail_electric ship" speed="13.89" length="2.60" shape="486.80,168.72 486.26,170.11 485.55,170.69 485.37,170.64"/>
    </edge>
    <edge id=":1748882234_11" function="internal">
        <lane id=":1748882234_11_0" index="0" speed="13.89" length="2.22" shape="485.37,170.64 484.65,170.46 483.58,169.44"/>
    </edge>
    <edge id=":1748882237_0" function="internal">
        <lane id=":1748882237_0_0" index="0" disallow="tram rail_urban rail rail_electric ship" speed="13.89" length="8.46" shape="389.61,196.89 382.86,201.71"/>
        <lane id=":1748882237_0_1" index="1" disallow="tram rail_urban rail rail_electric ship" speed="13.89" length="8.46" shape="388.06,193.97 381.01,198.98"/>
    </edge>
    <edge id=":1748882237_2" function="internal">
        <lane id=":1748882237_2_0" index="0" allow="delivery bicycle pedestrian" speed="9.72" length="8.42" shape="388.06,193.97 379.75,195.32"/>
    </edge>
    <edge id=":1772987778_0" function="internal">
        <lane id=":1772987778_0_0" index="0" allow="delivery bicycle pedestrian" speed="5.56" length="5.74" shape="370.31,197.22 364.57,196.99"/>
    </edge>
    <edge id=":1772987778_1" function="internal">
        <lane id=":1772987778_1_0" index="0" allow="delivery bicycle pedestrian" speed="5.56" length="0.10" shape="364.61,197.04 364.57,196.99"/>
    </edge>
    <edge id=":1806514086_0" function="internal">
        <lane id=":1806514086_0_0" index="0" allow="delivery bicycle pedestrian" speed="5.56" length="4.75" shape="608.69,204.82 607.55,204.27 606.45,204.15 605.39,204.47 604.37,205.22"/>
    </edge>
    <edge id=":1806514086_1" function="internal">
        <lane id=":1806514086_1_0" index="0" allow="delivery bicycle pedestrian" speed="5.56" length="8.40" shape="608.69,204.82 603.33,198.36"/>
    </edge>
    <edge id=":1806514086_2" function="internal">
        <lane id=":1806514086_2_0" index="0" allow="delivery bicycle pedestrian" speed="5.56" length="4.82" shape="608.69,204.82 608.12,203.45 608.23,202.53 609.03,202.07 610.52,202.07"/>
    </edge>
    <edge id=":1806514086_3" function="internal">
        <lane id=":1806514086_3_0" index="0" allow="delivery bicycle pedestrian" speed="5.56" length="6.39" shape="606.41,197.18 610.52,202.07"/>
    </edge>
    <edge id=":1806514086_4" function="internal">
        <lane id=":1806514086_4_0" index="0" allow="delivery bicycle pedestrian" speed="5.56" length="8.83" shape="606.41,197.18 606.92,199.33 606.74,201.40 605.89,203.36 604.37,205.22"/>
    </edge>
    <edge id=":1806514086_5" function="internal">
        <lane id=":1806514086_5_0" index="0" allow="delivery bicycle pedestrian" speed="5.56" length="4.82" shape="606.41,197.18 606.08,198.63 605.46,199.31 604.54,199.22 603.33,198.36"/>
    </edge>
    <edge id=":1806514086_6" function="internal">
        <lane id=":1806514086_6_0" index="0" allow="delivery bicycle pedestrian" speed="5.56" length="4.97" shape="602.07,202.85 602.96,201.78 603.47,200.67 603.59,199.53 603.33,198.36"/>
    </edge>
    <edge id=":1806514086_7" function="internal">
        <lane id=":1806514086_7_0" index="0" allow="delivery bicycle pedestrian" speed="5.56" length="9.29" shape="602.07,202.85 604.06,201.38 606.13,200.76 608.28,200.99 610.52,202.07"/>
    </edge>
    <edge id=":1806514086_8" function="internal">
        <lane id=":1806514086_8_0" index="0" allow="delivery bicycle pedestrian" speed="5.56" length="4.82" shape="602.07,202.85 603.53,202.58 604.40,202.89 604.68,203.77 604.37,205.22"/>
    </edge>
    <edge id=":1872294694_0" function="internal">
        <lane id=":1872294694_0_0" index="0" allow="delivery bicycle pedestrian" speed="5.56" length="4.82" shape="103.48,529.36 102.00,529.58 101.15,529.24 100.90,528.35 101.27,526.91"/>
    </edge>
    <edge id=":199145_0" function="internal">
        <lane id=":199145_0_0" index="0" disallow="tram rail_urban rail rail_electric ship" speed="13.89" length="6.20" shape="112.22,246.35 106.50,243.94"/>
        <lane id=":199145_0_1" index="1" disallow="tram rail_urban rail rail_electric ship" speed="13.89" length="6.20" shape="113.50,243.31 107.78,240.90"/>
    </edge>
    <edge id=":199145_2" function="internal">
        <lane id=":199145_2_0" index="0" disallow="tram rail_urban rail rail_electric ship" speed="11.11" length="2.72" shape="113.50,243.31 112.49,242.22 112.38,240.99"/>
    </edge>
    <edge id=":199145_3" function="internal">
        <lane id=":199145_3_0" index="0" disallow="tram rail_urban rail rail_electric ship" speed="13.89" length="2.41" shape="113.50,243.31 112.68,242.07 112.62,241.15"/>
    </edge>
    <edge id=":199145_8" function="internal">
        <lane id=":199145_8_0" index="0" speed="11.11" length="8.16" shape="112.38,240.99 112.31,240.17 112.94,237.15 114.40,233.16"/>
    </edge>
    <edge id=":199145_9" function="internal">
        <lane id=":199145_9_0" index="0" speed="13.89" length="2.41" shape="112.62,241.15 113.32,240.54 114.78,240.26"/>
    </edge>
    <edge id=":199145_4" function="internal">
        <lane id=":199145_4_0" index="0" disallow="tram rail_urban rail rail_electric ship" speed="11.11" length="5.00" shape="110.35,234.82 111.67,235.17 112.79,235.00 113.70,234.34 114.40,233.16"/>
    </edge>
    <edge id=":199145_5" function="internal">
        <lane id=":199145_5_0" index="0" disallow="tram rail_urban rail rail_electric ship" speed="13.89" length="6.20" shape="110.35,234.82 116.06,237.22"/>
        <lane id=":199145_5_1" index="1" disallow="tram rail_urban rail rail_electric ship" speed="13.89" length="6.20" shape="109.06,237.86 114.78,240.26"/>
    </edge>
    <edge id=":199145_7" function="internal">