<?xml version="1.0" encoding="UTF-8"?>

<!-- generated on 07/26/16 20:18:04 by SUMO duarouter Version 0.26.0
<?xml version="1.0" encoding="UTF-8"?>

<configuration xmlns:xsi="http://www.w3.org/2001/XMLSchema-instance" xsi:noNamespaceSchemaLocation="http://sumo.dlr.de/xsd/duarouterConfiguration.xsd">

    <input>
        <net-file value="C:\Users\protoworld\Desktop\ProtoWorld\ScriptsAndTools\Tests\TrafficGenTest/map.net.xml"/>
        <trip-files value="C:\Users\protoworld\Desktop\ProtoWorld\ScriptsAndTools\Tests\TrafficGenTest/map.trips.xml"/>
    </input>

    <output>
        <output-file value="C:\Users\protoworld\Desktop\ProtoWorld\ScriptsAndTools\Tests\TrafficGenTest/map.rou.xml"/>
    </output>

    <processing>
        <repair value="true"/>
    </processing>

    <time>
        <begin value="0"/>
        <end value="5000"/>
    </time>

</configuration>
-->

<routes xmlns:xsi="http://www.w3.org/2001/XMLSchema-instance" xsi:noNamespaceSchemaLocation="http://sumo.dlr.de/xsd/routes_file.xsd">
    <vehicle id="veh0" depart="0.00">
        <route edges="95305149#0 41568993#0 41568996#0 178204657 40802611#0 41568997"/>
    </vehicle>
    <vehicle id="veh1" depart="0.33">
        <route edges="-370907124#5 -370907124#4 -370907124#3 -370907124#1 -370907124#0 -252597842#1 -11393278#1 11393278#0"/>
    </vehicle>
    <vehicle id="veh2" depart="0.67">
        <route edges="328863230#0 -41666453#3 -41666453#2 -41666453#0 -4880516#1 370907124#5"/>
    </vehicle>
    <vehicle id="veh3" depart="1.00">
        <route edges="-41666453#3 -41666453#2 -41666453#0 -4880516#1 -370907124#4 -370907124#3 -370907124#1 -370907124#0 -252597842#1 -11393278#1 -1927325#2 -1927325#1 178016689#4 178016689#5 4491250 177035830#0 138481215#0 -138481215#1"/>
    </vehicle>
    <vehicle id="veh4" depart="1.33">
        <route edges="328863230#0 -41666453#3 -41666453#2 -41666453#0 -4880516#1 -370907124#4 -370907124#3 -370907124#1 -370907124#0 -252597842#1 -11393278#1 -1927325#2 176752025#0 178016689#1"/>
    </vehicle>
    <vehicle id="veh5" depart="1.67">
        <route edges="-332670566#3 332670565#1 374449812 -252133178#1 -11393278#1 -1927325#2 -1927325#1 178016689#4 178016689#5 40802611#0 95305157#0 -95305149#1"/>
    </vehicle>
    <vehicle id="veh6" depart="2.00">
        <route edges="11393278#0 -11393278#1"/>
    </vehicle>
    <vehicle id="veh7" depart="2.33">
        <route edges="-252597842#1 252597842#0 370907124#0 370907124#1 370907124#3 370907124#4 4880516#0 41666453#0 41666453#1 41666453#3 328863617#0"/>
    </vehicle>
    <vehicle id="veh9" depart="3.00">
        <route edges="-332670566#3 332670565#1 374449812 -252133178#1 -11393278#1 -1927325#2 -1927325#1 178016689#4"/>
    </vehicle>
    <vehicle id="veh11" depart="3.67">
        <route edges="-252597842#1 -11393278#1 -1927325#2 -1927325#1 178016689#4 178016689#5 40802611#0 95305157#0 -95305149#1"/>
    </vehicle>
    <vehicle id="veh12" depart="4.00">
        <route edges="-252133178#1 -11393278#1 -1927325#2 -1927325#1 178016689#4 178016689#5 4491250 178204657"/>
    </vehicle>
    <vehicle id="veh13" depart="4.33">
        <route edges="252133178#0 -252133178#1 -11393278#1 -1927325#2 -1927325#1 178016689#4 178016689#5 4491250 177035830#0 138481215#0 4491247#0"/>
    </vehicle>
    <vehicle id="veh14" depart="4.67">
        <route edges="-1927325#1 1927325#0 1927325#2 11393278#0 252597842#0 -252597842#1"/>
    </vehicle>
    <vehicle id="veh15" depart="5.00">
        <route edges="328863617#0 -328863617#0 -41666453#3 -41666453#2 -41666453#0 -4880516#1 -370907124#4"/>
    </vehicle>
    <vehicle id="veh16" depart="5.33">
        <route edges="328863617#0 -328863617#0 -41666453#3 -41666453#2 -41666453#0 -4880516#1 4880516#0"/>
    </vehicle>
    <vehicle id="veh17" depart="5.67">
        <route edges="1927325#0 -1927325#1 178016689#4 178016689#5 4491250 178204664#0 116883665#0 116883665#1 40887373#1 33057170#0"/>
    </vehicle>
    <vehicle id="veh18" depart="6.00">
        <route edges="-370907124#4 -370907124#3 -370907124#1 -370907124#0 -252597842#1 -11393278#1 -1927325#2 -1927325#1 178016689#4 178016689#5 40802611#0 41568997"/>
    </vehicle>
    <vehicle id="veh20" depart="6.67">
        <route edges="4492286#0 41568996#0 178204664#0 116883665#0 116883665#1 40887373#1 33056669#0 32123799#0"/>
    </vehicle>
    <vehicle id="veh22" depart="7.33">
        <route edges="374449812 -252133178#1 -11393278#1 -1927325#2 -1927325#1 178016689#4 178016689#5 4491250 177035830#0 138481215#0 4491247#0"/>
    </vehicle>
    <vehicle id="veh24" depart="8.00">
        <route edges="4880516#0 -4880516#1 -370907124#4 -370907124#3 -370907124#1 -370907124#0 -252597842#1 -11393278#1 -1927325#2 -1927325#1 178016689#4 178016689#5 4491250"/>
    </vehicle>
    <vehicle id="veh25" depart="8.33">
        <route edges="-370907124#5 -370907124#4 -370907124#3 -370907124#1 -370907124#0 -252597842#1 -11393278#1 -1927325#2 -1927325#1 1927325#0"/>
    </vehicle>
    <vehicle id="veh26" depart="8.67">
        <route edges="252133178#0 -252133178#1 252597842#0 370907124#0 370907124#1 370907124#3 370907124#4 4880516#0"/>
    </vehicle>
    <vehicle id="veh28" depart="9.33">
        <route edges="252133178#0 -252133178#1 252597842#0 370907124#0 370907124#1 370907124#3 370907124#4 4880516#0 41666453#0 41666453#1 41666453#3 328863617#0"/>
    </vehicle>
    <vehicle id="veh30" depart="10.00">
        <route edges="-370907124#3"/>
    </vehicle>
    <vehicle id="veh31" depart="10.33">
        <route edges="-252597842#1 -11393278#1 -1927325#2 -1927325#1 178016689#4 178016689#5 4491250 178204664#0 116883665#0 116883665#1"/>
    </vehicle>
    <vehicle id="veh32" depart="10.67">
        <route edges="41666453#0 -41666453#0 -4880516#1 -370907124#4 -370907124#3 -370907124#1 370907124#1"/>
    </vehicle>
    <vehicle id="veh33" depart="11.00">
        <route edges="-332670565#2 332670565#1 374449812 -252133178#1 -11393278#1 -1927325#2 -1927325#1 178016689#4 178016689#5 4491250 177035830#0 138481224#0"/>
    </vehicle>
    <vehicle id="veh34" depart="11.33">
        <route edges="1927325#0 1927325#2 11393278#0 252597842#0 370907124#0 370907124#1 370907124#3 370907124#4 4880516#0 41666453#0 41666453#1 41666453#3 328863617#0 -315153307 315153307"/>
    </vehicle>
    <vehicle id="veh36" depart="12.00">
        <route edges="374449812 -374449812 -332670565#2 -332670565#0"/>
    </vehicle>
    <vehicle id="veh37" depart="12.33">
        <route edges="178016689#0 178016689#1 1927325#0 1927325#2 11393278#0 252597842#0 370907124#0 370907124#1 370907124#3 370907124#4 4880516#0 -23066270"/>
    </vehicle>
    <vehicle id="veh38" depart="12.67">
        <route edges="178016689#0 178016689#1 178016689#4 178016689#5 4491250 177035830#0 138481215#0"/>
    </vehicle>
    <vehicle id="veh39" depart="13.00">
        <route edges="177035830#0 138481215#0 4491247#0"/>
    </vehicle>
    <vehicle id="veh47" depart="15.67">
        <route edges="-41666453#3 -41666453#2 -41666453#0 -4880516#1 -370907124#4 370907124#4"/>
    </vehicle>
    <vehicle id="veh48" depart="16.00">
        <route edges="-1927325#1 178016689#4 178016689#5 4491250 178204664#0 116883665#0 116883665#1"/>
    </vehicle>
    <vehicle id="veh49" depart="16.33">
        <route edges="41666453#3 -41666453#3 -41666453#2 -41666453#0 -4880516#1 -370907124#4 -370907124#3 -370907124#1 -370907124#0 -252597842#1 252133178#0 -374449812 374449812"/>
    </vehicle>
    <vehicle id="veh51" depart="17.00">
        <route edges="41666453#3 -41666453#3 -41666453#2 -41666453#0 -4880516#1 -370907124#4 -370907124#3 -370907124#1 -370907124#0 -252597842#1 -11393278#1 -1927325#2 -1927325#1 178016689#4 178016689#5 4491250 178204664#0 116883665#0 116883665#1"/>
    </vehicle>
    <vehicle id="veh57" depart="19.00">
        <route edges="-138481215#2 -138481215#1 138481224#0 178204657"/>
    </vehicle>
    <vehicle id="veh58" depart="19.33">
        <route edges="-370907124#5 -370907124#4 -370907124#3 -370907124#1"/>
    </vehicle>
    <vehicle id="veh59" depart="19.67">
        <route edges="178016689#0 178016689#1 1927325#0 1927325#2 11393278#0 252597842#0 370907124#0 370907124#1 370907124#3 370907124#4 4880516#0 41666453#0 41666453#1 41666453#3 328863617#0 -315153307"/>
    </vehicle>
    <vehicle id="veh60" depart="20.00">
        <route edges="178016689#0 178016689#1 178016689#4 178016689#5 4491250 177035830#0 138481215#0 138481215#2"/>
    </vehicle>
    <vehicle id="veh61" depart="20.33">
        <route edges="315153307 -328863617#0 -41666453#3 -41666453#2 -41666453#0 -4880516#1 -370907124#4 -370907124#3 -370907124#1 -370907124#0 -252597842#1 -11393278#1 -1927325#2 -1927325#1 178016689#4 178016689#5 4491250 178204664#0 116883665#0 116883665#1 40887373#1 33056669#0 33054976#1"/>
    </vehicle>
    <vehicle id="veh63" depart="21.00">
        <route edges="-11393278#1 11393278#0 252597842#0 370907124#0 370907124#1 370907124#3 370907124#4 4880516#0 41666453#0 41666453#1 41666453#3 -328863230#0"/>
    </vehicle>
    <vehicle id="veh64" depart="21.33">
        <route edges="178016689#1 178016689#4 178016689#5 4491250 178204664#0 116883665#0 116883665#1"/>
    </vehicle>
    <vehicle id="veh66" depart="22.00">
        <route edges="328863230#0 -41666453#3 -41666453#2 -41666453#0 -4880516#1 -370907124#4 -370907124#3 -370907124#1 -370907124#0 -252597842#1 -11393278#1 -1927325#2 -1927325#1 178016689#4 178016689#5 4491250 178204664#0 116883665#0 116883665#1 40887373#1 33057170#0"/>
    </vehicle>
    <vehicle id="veh67" depart="22.33">
        <route edges="374449812 -252133178#1 -11393278#1 -1927325#2 -1927325#1 178016689#4 178016689#5 40802611#0 41568997 41568995"/>
    </vehicle>
    <vehicle id="veh68" depart="22.67">
        <route edges="41568997 41568996#0 178204664#0 116883665#0 116883665#1 40887373#1 33056669#0 32123799#0"/>
    </vehicle>
    <vehicle id="veh69" depart="23.00">
        <route edges="-370907124#5 -370907124#4 -370907124#3 -370907124#1 -370907124#0 -252597842#1 -11393278#1 -1927325#2 -1927325#1 178016689#4 178016689#5 4491250 177035830#0 138481215#0 -138481215#1"/>
    </vehicle>
    <vehicle id="veh70" depart="23.33">
        <route edges="178016689#0 178016689#1 1927325#0 1927325#2 11393278#0 252597842#0 370907124#0 370907124#1"/>
    </vehicle>
    <vehicle id="veh71" depart="23.67">
        <route edges="41666453#3 -41666453#3 -41666453#2 -41666453#0 -4880516#1 -370907124#4 -370907124#3 370907124#3"/>
    </vehicle>
    <vehicle id="veh72" depart="24.00">
        <route edges="370907124#0 -370907124#0 -252597842#1 -11393278#1 -1927325#2 176752025#0 178016689#1"/>
    </vehicle>
    <vehicle id="veh73" depart="24.33">
        <route edges="-11393278#1 11393278#0 252133178#0"/>
    </vehicle>
    <vehicle id="veh74" depart="24.67">
        <route edges="-315153307 315153307 -328863617#0 -41666453#3 -41666453#2 -41666453#0 -4880516#1 -370907124#4 -370907124#3 -370907124#1 -370907124#0 -252597842#1 -11393278#1 -1927325#2"/>
    </vehicle>
    <vehicle id="veh75" depart="25.00">
        <route edges="-332670565#2 332670565#1 374449812 -252133178#1 -11393278#1 -1927325#2 -1927325#1 178016689#4 178016689#5 40802611#0 41568997 41568996#0"/>
    </vehicle>
    <vehicle id="veh76" depart="25.33">
        <route edges="-41666453#3 -41666453#2 -41666453#0 -4880516#1 -370907124#4 -370907124#3 -370907124#1 -370907124#0 -252597842#1 252597842#0"/>
    </vehicle>
    <vehicle id="veh77" depart="25.67">
        <route edges="-252597842#1 -11393278#1 -1927325#2 -1927325#1 178016689#4 178016689#5 4491250 177035830#0 138481224#0"/>
    </vehicle>
    <vehicle id="veh78" depart="26.00">
        <route edges="-370907124#4 370907124#4 4880516#0 -4880516#1"/>
    </vehicle>
    <vehicle id="veh82" depart="27.33">
        <route edges="-332670565#2 332670565#1"/>
    </vehicle>
    <vehicle id="veh83" depart="27.67">
        <route edges="-370907124#0 370907124#0 370907124#1 370907124#3 370907124#4 4880516#0 41666453#0 41666453#1 41666453#3 328863617#0 -328863617#0"/>
    </vehicle>
    <vehicle id="veh84" depart="28.00">
        <route edges="332670565#1 374449812 -252133178#1 -11393278#1 -1927325#2 -1927325#1 178016689#4 178016689#5 4491250"/>
    </vehicle>
    <vehicle id="veh85" depart="28.33">
        <route edges="-332670566#3 332670565#1 374449812"/>
    </vehicle>
    <vehicle id="veh86" depart="28.67">
        <route edges="370907124#0 -370907124#0 -252597842#1 252133178#0 -374449812 -332670565#2 -332670565#0"/>
    </vehicle>
    <vehicle id="veh87" depart="29.00">
        <route edges="-41666453#2 -41666453#0 -4880516#1 -370907124#4 -370907124#3 -370907124#1 -370907124#0 -252597842#1 252133178#0 -374449812 -332670565#2"/>
    </vehicle>
    <vehicle id="veh88" depart="29.33">
        <route edges="1927325#0 1927325#2 11393278#0 252597842#0 370907124#0 370907124#1 370907124#3 370907124#4 4880516#0 -4880516#1"/>
    </vehicle>
    <vehicle id="veh89" depart="29.67">
        <route edges="178016689#0 178016689#1 1927325#0 1927325#2"/>
    </vehicle>
    <vehicle id="veh90" depart="30.00">
        <route edges="-252597842#1 -11393278#1 -1927325#2 -1927325#1 178016689#4 178016689#5 4491250 178204664#0 116883665#0 -33054516#2"/>
    </vehicle>
    <vehicle id="veh91" depart="30.33">
        <route edges="1927325#2 -1927325#2 -1927325#1 178016689#4 178016689#5 40802611#0 41568997 41568996#0"/>
    </vehicle>
    <vehicle id="veh92" depart="30.67">
        <route edges="-252597842#1 -11393278#1 -1927325#2 -1927325#1 178016689#4 178016689#5 4491250 177035830#0 138481224#0"/>
    </vehicle>
    <vehicle id="veh93" depart="31.00">
        <route edges="32123799#0 40887373#1 33056669#0"/>
    </vehicle>
    <vehicle id="veh97" depart="32.33">
        <route edges="-252597842#1 -11393278#1 -1927325#2 -1927325#1 178016689#4 178016689#5 4491250 178204664#0 116883665#0 116883665#1 40887373#1 33057170#0"/>
    </vehicle>
    <vehicle id="veh98" depart="32.67">
        <route edges="-332670566#3 332670565#1 374449812 -252133178#1 252597842#0 370907124#0 370907124#1 370907124#3 370907124#4 4880516#0 41666453#0 41666453#1 41666453#3 328863617#0 -315153307 315153307"/>
    </vehicle>
    <vehicle id="veh99" depart="33.00">
        <route edges="-374449812 374449812 -252133178#1 -11393278#1 -1927325#2 -1927325#1 178016689#4 178016689#5 40802611#0 95305157#0 41568993#0"/>
    </vehicle>
    <vehicle id="veh104" depart="34.67">
        <route edges="-328863617#0 -41666453#3 -41666453#2 -41666453#0 -4880516#1 -370907124#4 -370907124#3 -370907124#1 -370907124#0 -252597842#1 252133178#0 -374449812"/>
    </vehicle>
    <vehicle id="veh105" depart="35.00">
        <route edges="-1927325#1 178016689#4 178016689#5 4491250 178204664#0 116883665#0 116883665#1 40887373#1 33056669#0 32123799#0"/>
    </vehicle>
    <vehicle id="veh106" depart="35.33">
        <route edges="-374449812 374449812 -252133178#1 -11393278#1 -1927325#2 -1927325#1 178016689#4 178016689#5 4491250 178204664#0 116883665#0 116883665#1 40887373#1 33056669#0 32123799#0"/>
    </vehicle>
    <vehicle id="veh107" depart="35.67">
        <route edges="41666453#3 -41666453#3 -41666453#2 -41666453#0 -4880516#1 -370907124#4 -370907124#3 -370907124#1 370907124#1 -370907124#1 -370907124#0 -252597842#1 -11393278#1 -1927325#2 -1927325#1 1927325#0 1927325#2 11393278#0 -11393278#1 11393278#0 252597842#0 370907124#0 370907124#1 370907124#3 370907124#4 4880516#0 41666453#0 -41666453#0 -4880516#1 -370907124#4 -370907124#3 -370907124#1 -370907124#0 -252597842#1 -11393278#1 -1927325#2 -1927325#1 178016689#4 178016689#5 4491250 177035830#0 138481215#0 -138481215#1 138481224#0 178204664#0 116883665#0 116883665#1"/>
    </vehicle>
    <vehicle id="veh108" depart="36.00">
        <route edges="-370907124#1 -370907124#0 -252597842#1 -11393278#1 -1927325#2 -1927325#1 178016689#4 178016689#5 4491250 177035830#0 138481215#0 138481215#2"/>
    </vehicle>
    <vehicle id="veh109" depart="36.33">
        <route edges="23066270 -23066270"/>
    </vehicle>
    <vehicle id="veh110" depart="36.67">
        <route edges="-1927325#1 1927325#0 1927325#2 11393278#0 252597842#0 370907124#0 370907124#1 370907124#3 370907124#4 -370907124#4 370907124#4 4880516#0 41666453#0 41666453#1 41666453#3 328863617#0 -328863617#0 -41666453#3 -41666453#2 -41666453#0 -4880516#1 -370907124#4 -370907124#3 -370907124#1 -370907124#0 -252597842#1 252597842#0 -252597842#1 252133178#0 -252133178#1 252597842#0 370907124#0 370907124#1 370907124#3 370907124#4"/>
    </vehicle>
    <vehicle id="veh112" depart="37.33">
        <route edges="-41666453#0 -4880516#1 -370907124#4 -370907124#3 -370907124#1 -370907124#0 -252597842#1 -11393278#1 -1927325#2 -1927325#1 178016689#4"/>
    </vehicle>
    <vehicle id="veh113" depart="37.67">
        <route edges="-315153307 315153307 -328863617#0 -41666453#3 -41666453#2 -41666453#0 -4880516#1 -370907124#4 -370907124#3 -370907124#1 -370907124#0 -252597842#1 -11393278#1 -1927325#2 -1927325#1 178016689#4 178016689#5 40802611#0 95305157#0 41568993#0"/>
    </vehicle>
    <vehicle id="veh114" depart="38.00">
        <route edges="4880516#0 -4880516#1 -370907124#4 -370907124#3 -370907124#1 -370907124#0 -252597842#1 -11393278#1 -1927325#2 -1927325#1 178016689#4 178016689#5 4491250 177035830#0"/>
    </vehicle>
    <vehicle id="veh117" depart="39.00">
        <route edges="-41666453#0 -4880516#1 4880516#0"/>
    </vehicle>
    <vehicle id="veh118" depart="39.33">
        <route edges="370907124#0 -370907124#0 -252597842#1 -11393278#1 -1927325#2 -1927325#1 178016689#4 178016689#5 40802611#0 95305157#0 41568993#0"/>
    </vehicle>
    <vehicle id="veh119" depart="39.67">
        <route edges="-41666453#0 -4880516#1 -370907124#4 -370907124#3 -370907124#1 370907124#1"/>
    </vehicle>
    <vehicle id="veh121" depart="40.33">
        <route edges="315153307 -328863617#0 -41666453#3 -41666453#2 -41666453#0 -4880516#1 -370907124#4 370907124#4"/>
    </vehicle>
    <vehicle id="veh122" depart="40.67">
        <route edges="33053473#0 41568996#0 178204657 40802611#0 95305157#0 41568993#0"/>
    </vehicle>
    <vehicle id="veh125" depart="41.67">
        <route edges="332670565#1 374449812 -252133178#1 -11393278#1 -1927325#2 -1927325#1 178016689#4 178016689#5 40802611#0 41568997"/>
    </vehicle>
    <vehicle id="veh127" depart="42.33">
        <route edges="-1927325#2 -1927325#1 178016689#4 178016689#5 40802611#0 95305157#0 41568993#0"/>
    </vehicle>
    <vehicle id="veh128" depart="42.67">
        <route edges="332670565#1 374449812 -252133178#1 252597842#0 370907124#0 370907124#1 370907124#3 370907124#4 4880516#0 41666453#0 41666453#1 -41666453#2"/>
    </vehicle>
    <vehicle id="veh131" depart="43.67">
        <route edges="-252597842#1 -11393278#1 -1927325#2 -1927325#1 178016689#4 178016689#5 4491250"/>
    </vehicle>
    <vehicle id="veh132" depart="44.00">
        <route edges="178016689#0 178016689#1 1927325#0 1927325#2 11393278#0 252597842#0 370907124#0 370907124#1 370907124#3 370907124#4 4880516#0 41666453#0 41666453#1 41666453#3 -328863230#0"/>
    </vehicle>
    <vehicle id="veh135" depart="45.00">
        <route edges="178016689#0 178016689#1 178016689#4 178016689#5 4491250 178204664#0 116883665#0"/>
    </vehicle>
    <vehicle id="veh137" depart="45.67">
        <route edges="315153307 -328863617#0 -41666453#3 -41666453#2 -41666453#0 -4880516#1 -370907124#4 -370907124#3 -370907124#1 -370907124#0 -252597842#1 -11393278#1 -1927325#2 -1927325#1 178016689#4 178016689#5 4491250 178204664#0 116883665#0 116883665#1"/>
    </vehicle>
    <vehicle id="veh138" depart="46.00">
        <route edges="328863230#0 -41666453#3 -41666453#2 -41666453#0 -4880516#1 -370907124#4 -370907124#3 -370907124#1 -370907124#0 -252597842#1 -11393278#1 -1927325#2 -1927325#1 178016689#4 178016689#5 4491250 178204664#0"/>
    </vehicle>
    <vehicle id="veh140" depart="46.67">
        <route edges="-1927325#2 1927325#2 11393278#0 252597842#0 370907124#0 370907124#1 370907124#3 370907124#4 4880516#0 41666453#0 41666453#1 41666453#3 328863617#0 -328863617#0 -41666453#3 -41666453#2 -41666453#0 -4880516#1 -370907124#4 -370907124#3 -370907124#1 -370907124#0 -252597842#1 -11393278#1 -1927325#2 -1927325#1 178016689#4 178016689#5 40802611#0 41568997 41568996#0 177035830#0"/>
    </vehicle>
    <vehicle id="veh141" depart="47.00">
        <route edges="374449812 -252133178#1 -11393278#1 -1927325#2 -1927325#1 178016689#4 178016689#5 4491250 178204664#0 116883665#0 116883665#1 40887373#1 33057170#0"/>
    </vehicle>
    <vehicle id="veh142" depart="47.33">
        <route edges="41666453#3 -41666453#3 -41666453#2 -41666453#0 -4880516#1 -370907124#4 -370907124#3 -370907124#1 -370907124#0 -252597842#1 -11393278#1 -1927325#2 -1927325#1 178016689#4 178016689#5 4491250 178204664#0 116883665#0 116883665#1"/>
    </vehicle>
    <vehicle id="veh145" depart="48.33">
        <route edges="178016689#0 178016689#1 1927325#0 1927325#2 11393278#0 252597842#0 370907124#0 370907124#1 370907124#3 370907124#4 4880516#0 -4880516#1"/>
    </vehicle>
    <vehicle id="veh146" depart="48.67">
        <route edges="315153307 -328863617#0 -41666453#3 -41666453#2 -41666453#0 -4880516#1 -370907124#4 -370907124#3 -370907124#1 -370907124#0 -252597842#1 252133178#0 -374449812 374449812"/>
    </vehicle>
    <vehicle id="veh147" depart="49.00">
        <route edges="138481215#0 -138481215#1 138481224#0"/>
    </vehicle>
    <vehicle id="veh149" depart="49.67">
        <route edges="11393278#0 -11393278#1 -1927325#2 -1927325#1 178016689#4 178016689#5 4491250 178204664#0 116883665#0 116883665#1 40887373#1 33056669#0"/>
    </vehicle>
    <vehicle id="veh151" depart="50.33">
        <route edges="370907124#4 4880516#0 41666453#0 41666453#1 41666453#3 -328863230#0"/>
    </vehicle>
    <vehicle id="veh152" depart="50.67">
        <route edges="252133178#0 -252133178#1 252597842#0 370907124#0 370907124#1 370907124#3 370907124#4 4880516#0 41666453#0 41666453#1 41666453#3 328863617#0"/>
    </vehicle>
    <vehicle id="veh153" depart="51.00">
        <route edges="23066270 -23066270"/>
    </vehicle>
    <vehicle id="veh154" depart="51.33">
        <route edges="315153307 -328863617#0 -41666453#3 -41666453#2 -41666453#0 41666453#0"/>
    </vehicle>
    <vehicle id="veh156" depart="52.00">
        <route edges="23066270 -4880516#1 -370907124#4 -370907124#3 -370907124#1 -370907124#0 -252597842#1 -11393278#1 -1927325#2 -1927325#1 178016689#4 178016689#5 40802611#0 41568997"/>
    </vehicle>
    <vehicle id="veh160" depart="53.33">
        <route edges="178016689#0 178016689#1 178016689#4 178016689#5 4491250 178204664#0 116883665#0 -33054516#2 33054516#1"/>
    </vehicle>
    <vehicle id="veh162" depart="54.00">
        <route edges="-252597842#1 -11393278#1 -1927325#2 -1927325#1 178016689#4 178016689#5 40802611#0 41568997 41568995"/>
    </vehicle>
    <vehicle id="veh164" depart="54.67">
        <route edges="11393278#0 252597842#0 370907124#0 370907124#1 370907124#3 370907124#4 4880516#0 41666453#0 41666453#1 -41666453#2"/>
    </vehicle>
    <vehicle id="veh165" depart="55.00">
        <route edges="370907124#1 -370907124#1 -370907124#0 -252597842#1 252133178#0 -252133178#1"/>
    </vehicle>
    <vehicle id="veh166" depart="55.33">
        <route edges="370907124#4 -370907124#4 -370907124#3 -370907124#1 -370907124#0 370907124#0"/>
    </vehicle>
    <vehicle id="veh167" depart="55.67">
        <route edges="-374449812 374449812 -252133178#1 252597842#0 370907124#0 370907124#1 370907124#3 370907124#4 4880516#0 41666453#0 -41666453#0"/>
    </vehicle>
    <vehicle id="veh169" depart="56.33">
        <route edges="-11393278#1 11393278#0 252597842#0 370907124#0 370907124#1 370907124#3 370907124#4 4880516#0 41666453#0 41666453#1 41666453#3 -41666453#3"/>
    </vehicle>
    <vehicle id="veh170" depart="56.67">
        <route edges="-370907124#1 370907124#1 370907124#3 370907124#4 4880516#0 -23066270"/>
    </vehicle>
    <vehicle id="veh172" depart="57.33">
        <route edges="-374449812 374449812 -252133178#1 252597842#0 370907124#0 370907124#1 370907124#3 370907124#4 4880516#0 41666453#0 41666453#1 41666453#3 328863617#0"/>
    </vehicle>
    <vehicle id="veh173" depart="57.67">
        <route edges="-370907124#1 -370907124#0 -252597842#1 -11393278#1 -1927325#2 -1927325#1 178016689#4 178016689#5 4491250 178204657"/>
    </vehicle>
    <vehicle id="veh174" depart="58.00">
        <route edges="-328863617#0 -41666453#3 -41666453#2 -41666453#0 -4880516#1 -370907124#4 -370907124#3 -370907124#1 -370907124#0 -252597842#1 -11393278#1 -1927325#2 -1927325#1 178016689#4"/>
    </vehicle>
    <vehicle id="veh175" depart="58.33">
        <route edges="252597842#0 370907124#0 370907124#1 370907124#3 370907124#4 4880516#0 41666453#0 41666453#1 41666453#3 328863617#0 -328863617#0"/>
    </vehicle>
    <vehicle id="veh177" depart="59.00">
        <route edges="-370907124#0 370907124#0 370907124#1 370907124#3"/>
    </vehicle>
    <vehicle id="veh178" depart="59.33">
        <route edges="252133178#0 -252133178#1 252597842#0 370907124#0 370907124#1 370907124#3 370907124#4 4880516#0 41666453#0 41666453#1 41666453#3 -328863230#0"/>
    </vehicle>
    <vehicle id="veh179" depart="59.67">
        <route edges="-370907124#0 -252597842#1 -11393278#1 -1927325#2 -1927325#1 178016689#4"/>
    </vehicle>
    <vehicle id="veh180" depart="60.00">
        <route edges="-328863617#0 -328863230#0"/>
    </vehicle>
    <vehicle id="veh182" depart="60.67">
        <route edges="4880516#0 -4880516#1 -370907124#4 -370907124#3 -370907124#1 -370907124#0 -252597842#1 -11393278#1 -1927325#2 -1927325#1 178016689#4 178016689#5 4491250 178204657"/>
    </vehicle>
    <vehicle id="veh183" depart="61.00">
        <route edges="-370907124#1 -370907124#0 -252597842#1 252133178#0 -374449812 -332670565#2"/>
    </vehicle>
    <vehicle id="veh184" depart="61.33">
        <route edges="-374449812 374449812 -252133178#1 -11393278#1 -1927325#2 -1927325#1 178016689#4 178016689#5 40802611#0 95305157#0 -95305149#1"/>
    </vehicle>
    <vehicle id="veh186" depart="62.00">
        <route edges="-1927325#2 1927325#2 11393278#0 252597842#0 370907124#0 370907124#1 370907124#3 370907124#4 4880516#0 41666453#0 41666453#1 41666453#3 -41666453#3"/>
    </vehicle>
    <vehicle id="veh188" depart="62.67">
        <route edges="-332670565#2 332670565#1 374449812 -252133178#1 252597842#0 370907124#0 370907124#1 370907124#3 370907124#4 4880516#0 41666453#0 41666453#1 41666453#3 328863617#0"/>
    </vehicle>
    <vehicle id="veh191" depart="63.67">
        <route edges="-370907124#4 370907124#4 4880516#0 41666453#0 41666453#1 41666453#3 328863617#0 -328863617#0"/>
    </vehicle>
    <vehicle id="veh194" depart="64.67">
        <route edges="-4880516#1 -370907124#4 -370907124#3 -370907124#1 -370907124#0 -252597842#1 -11393278#1 -1927325#2 -1927325#1 178016689#4 178016689#5 4491250"/>
    </vehicle>
    <vehicle id="veh195" depart="65.00">
        <route edges="-370907124#0 -252597842#1 -11393278#1 -1927325#2 -1927325#1 178016689#4 178016689#5 4491250 178204664#0 116883665#0 116883665#1 40887373#1 33056669#0 32123799#0"/>
    </vehicle>
    <vehicle id="veh196" depart="65.33">
        <route edges="-41666453#0 41666453#0 41666453#1 41666453#3 328863617#0 -315153307 315153307"/>
    </vehicle>
    <vehicle id="veh199" depart="66.33">
        <route edges="328863617#0 -328863617#0 -41666453#3 -41666453#2 -41666453#0 -4880516#1 -370907124#4 -370907124#3 -370907124#1 -370907124#0 -252597842#1 252133178#0 -374449812 -332670565#2"/>
    </vehicle>
    <vehicle id="veh201" depart="67.00">
        <route edges="41666453#1 41666453#3 328863617#0 -315153307 315153307"/>
    </vehicle>
    <vehicle id="veh202" depart="67.33">
        <route edges="-332670566#3 332670565#1 374449812 -252133178#1 252597842#0 370907124#0 370907124#1 370907124#3 370907124#4 4880516#0"/>
    </vehicle>
    <vehicle id="veh203" depart="67.67">
        <route edges="-41666453#0 -4880516#1 -370907124#4 -370907124#3 -370907124#1 -370907124#0 -252597842#1 -11393278#1 -1927325#2 -1927325#1 178016689#4 178016689#5 40802611#0 95305157#0 41568993#0"/>
    </vehicle>
    <vehicle id="veh204" depart="68.00">
        <route edges="-11393278#1 11393278#0 252133178#0 -374449812 -332670565#2 -332670565#0"/>
    </vehicle>
    <vehicle id="veh205" depart="68.33">
        <route edges="41666453#0 -41666453#0 -4880516#1 -370907124#4 -370907124#3 -370907124#1 -370907124#0 -252597842#1 -11393278#1 -1927325#2 -1927325#1 178016689#4 178016689#5 4491250 178204664#0 116883665#0"/>
    </vehicle>
    <vehicle id="veh208" depart="69.33">
        <route edges="41666453#3 -41666453#3 -41666453#2 -41666453#0 -4880516#1 -370907124#4 -370907124#3 -370907124#1 -370907124#0 -252597842#1 -11393278#1 -1927325#2 -1927325#1 178016689#4 178016689#5"/>
    </vehicle>
    <vehicle id="veh210" depart="70.00">
        <route edges="252597842#0 -252597842#1 -11393278#1 -1927325#2 -1927325#1 178016689#4 178016689#5 4491250 178204664#0 116883665#0 116883665#1 40887373#1"/>
    </vehicle>
    <vehicle id="veh211" depart="70.33">
        <route edges="370907124#3 370907124#4 4880516#0 -4880516#1"/>
    </vehicle>
    <vehicle id="veh212" depart="70.67">
        <route edges="41666453#3 -41666453#3 -41666453#2 -41666453#0 -4880516#1 -370907124#4 -370907124#3 -370907124#1"/>
    </vehicle>
    <vehicle id="veh213" depart="71.00">
        <route edges="-252133178#1 252597842#0 370907124#0 370907124#1 370907124#3 370907124#4 4880516#0 41666453#0 41666453#1 41666453#3 328863617#0 -315153307 315153307 -328863617#0 -41666453#3 -41666453#2 -41666453#0 -4880516#1 -370907124#4 -370907124#3 370907124#3 -370907124#3 -370907124#1 -370907124#0 -252597842#1 -11393278#1 -1927325#2 -1927325#1 178016689#4 178016689#5 4491250 177035830#0 138481224#0"/>
    </vehicle>
    <vehicle id="veh215" depart="71.67">